15
Frame 0, Iteration: 100
C -1.277372 -0.027393 0.020700
X -1.793836 0.010260 -0.611728
X -1.669358 -0.053886 0.680030
C -0.301719 1.181594 0.045359
X -0.376598 1.634843 -0.574913
X -0.389946 1.596743 0.672106
C 1.152702 0.599193 -0.027491
X 1.558855 0.790703 0.581080
X 1.504147 0.884831 -0.660696
C -0.426967 -1.355281 -0.019849
X -0.606618 -1.733048 -0.652324
X -0.576897 -1.812344 0.591346
C 1.082880 -0.938103 -0.081154
X 1.449041 -1.236225 0.556985
X 1.418877 -1.163181 -0.745007
